LAMMPS (7 Sep 2016)
# Input file for lammps simulation using the Isotropic-anharmonic Shell Model
# proposed by Vielma and Schneider based on PBE Generalized Gradient
# Approximation(GGA) to Density Functional Theory(DFT):
# [Vielma Schneider 2013](http://dx.doi.org/10.1063/1.4827475)

# Vishal Boddu, June 2016

# ------------------------ INITIALIZATION ---------------------------------

units 		metal
dimension	3
boundary	p	p	p
atom_style	full

# ----------------------- ATOM DEFINITION ----------------------------

fix csinfo all property/atom i_CSID
read_data atom.data fix csinfo NULL CS-Info
  orthogonal box = (0 0 0) to (40.1 40.1 64.16)
  reading atoms ...
  16000 atoms
  scanning bonds ...
  reading bonds ...
  8000 bonds

#change_box all triclinic xy delta 0.0 xz delta 0.0 yz delta 0.0 remap

group cores type 1 3 5
8000 atoms in group cores
group shells type 2 4 6
8000 atoms in group shells

neighbor 0.5 bin
neigh_modify delay 10 check yes
comm_modify vel yes

# ------------------------ FORCE FIELDS ------------------------------

#kspace_style ewald 1.0e-6
#pair_style   born/coul/long/cs 8.0
pair_style   born/coul/wolf/cs 0.25 16.0 14.5
#pair_style   born/coul/wolf 0.25 16.0 14.5

#------------------------ A,  rho, sigma=0,     C,      D
pair_coeff	*	*	 0.0000	1.0000	0.000	0.0000	0.000
pair_coeff	2	6	7149.81	0.3019	0.000	0.0000	0.000
pair_coeff	4	6	7200.27	0.2303	0.000	0.0000	0.000
pair_coeff	6	6	3719.60	0.3408	0.000	597.17	0.000
pair_modify tail no

bond_style class2
bond_coeff	1	0.0	149.255	0.0		   0.0000000
bond_coeff	2	0.0	153.070	0.0		 20.83333333
bond_coeff	3	0.0	 18.465	0.0		208.33333333
change_box all triclinic xy delta 0.212762227188 yz delta 0.132976391992 xz delta 0.132976391992 remap
  triclinic box = (0 0 0) to (40.1 40.1 64.16) with tilt (0 0 0)
  triclinic box = (0 0 0) to (40.1 40.1 64.16) with tilt (0.212762 0 0)
  triclinic box = (0 0 0) to (40.1 40.1 64.16) with tilt (0.212762 0 0.132976)
  triclinic box = (0 0 0) to (40.1 40.1 64.16) with tilt (0.212762 0.132976 0.132976)
compute dr all displace/atom
reset_timestep 0
dump dump_positions all atom 1000 atomdump
dump dump_displace all custom 1000 displdump id type c_dr[1] c_dr[2] c_dr[3]
thermo 100
thermo_style custom step etotal pe ke fnorm ecoul elong ebond temp press pxx pyy pzz lx ly lz
compute CSequ all temp/cs cores shells
thermo_modify temp CSequ
fix EF all efield 0.000289 0.000289 0.000289
fix_modify EF energy yes
min_style quickmin
minimize 0.0 1e-04 30000 100000
  1 neighbor list requests
  update every 1 steps, delay 0 steps, check yes
Step TotEng PotEng KinEng Fnorm E_coul E_long E_bond Temp Press Pxx Pyy Pzz Lx Ly Lz
0   -191163.05   -191163.05            0   0.18168186   -204508.82            0            0            0   -56318.394   -56361.242   -56268.135   -56325.804         40.1         40.1        64.16
Averages over the last 11 of 22 rows, steps 1100 to 2009:
TotEng PotEng KinEng Fnorm E_coul E_long E_bond Temp Press Pxx Pyy Pzz Lx Ly Lz
-191286 -191286 2.68631e-07 0.00396043 -208630 0 1292.81 2.5981e-07 467.857 720.105 741.59 -58.1231 40.1 40.1 64.16
Loop time of 9662.95 on 8 procs for 2009 steps with 16000 atoms

Minimization stats:
  Stopping criterion = force tolerance
  Energy initial, next-to-last, final =
  Force two-norm initial, final = 0.181682 9.58217e-05
  Force max component initial, final = 0.00145714 3.88411e-06
  Final line search alpha, max atom move = 0 0
  Iterations, force evaluations = 2009 2009

unfix EF
min_style fire
minimize 0.0 1e-05 60000 100000
Step TotEng PotEng KinEng Fnorm E_coul E_long E_bond Temp Press Pxx Pyy Pzz Lx Ly Lz
2009   -191286.57   -191286.57            0   0.18168162   -208630.08            0    1292.8242            0    468.64201    717.58319    738.13605   -49.793207         40.1         40.1        64.16
Averages over the last 39 of 78 rows, steps 5900 to 9626:
TotEng PotEng KinEng Fnorm E_coul E_long E_bond Temp Press Pxx Pyy Pzz Lx Ly Lz
-191287 -191287 3.14204e-12 1.89423e-05 -208623 0 1290.5 3.03887e-12 369.737 619.523 639.618 -149.931 40.1 40.1 64.16
Loop time of 30562.4 on 8 procs for 7617 steps with 16000 atoms

Minimization stats:
  Stopping criterion = force tolerance
  Energy initial, next-to-last, final =
  Force two-norm initial, final = 0.181682 9.92759e-06
  Force max component initial, final = 0.00145925 2.87495e-07
  Final line search alpha, max atom move = 0 0
  Iterations, force evaluations = 7617 7617

reset_timestep 0
variable la equal lx
variable lb equal ly
variable lc equal lz
fix AVE_LAT all ave/time 1 30000 40000 v_la v_lb v_lc file ave_lat
fix AVE_ATOM all ave/atom 1 30000 40000 c_dr[1] c_dr[2] c_dr[3]
dump core_displ all custom 40000 displcoredump id type f_AVE_ATOM[1] f_AVE_ATOM[2] f_AVE_ATOM[3]
variable TEMP equal temp
fix AVE_T all ave/time 1 30000 40000 v_TEMP file ave_temp
