LAMMPS (7 Sep 2016)
# Input file for lammps simulation using Isotropic-anharmonic Shell Model
# proposed by Vielma and Schneider based on PBE Generalized Gradient
# Approximation(GGA) to Density Functional Theory(DFT):
# [Vielma Schneider 2013](http://dx.doi.org/10.1063/1.4827475)

# Vishal Boddu, June 2016

# ------------------------ INITIALIZATION ---------------------------------

units 		metal
dimension	3
boundary	p	p	s
atom_style	full

# ----------------------- ATOM DEFINITION ----------------------------

fix csinfo all property/atom i_CSID
read_data atom.data fix csinfo NULL CS-Info
  orthogonal box = (0 0 0) to (4.01 4.01 4.01)
  reading atoms ...
  10 atoms
  scanning bonds ...
  reading bonds ...
  5 bonds

#change_box all triclinic xy delta 0.0 xz delta 0.0 yz delta 0.0 remap

group cores type 1 3 5
5 atoms in group cores
group shells type 2 4 6
5 atoms in group shells

neighbor 0.5 bin
neigh_modify delay 10 check yes
comm_modify vel yes

# ------------------------ FORCE FIELDS ------------------------------

#kspace_style ewald 1.0e-6
#pair_style   born/coul/long/cs 7.0
pair_style born/coul/wolf/cs 0.25 16 14.5

#------------------------ A,  rho, sigma=0,     C,      D
pair_coeff	*	*	 0.0000	1.0000	0.000	0.0000	0.000
pair_coeff	2	6	1588.36	0.3553	0.000	0.0000	0.000
pair_coeff	4	6	3131.25	0.2591	0.000	0.0000	0.000
pair_coeff	6	6	2641.41	0.3507	0.000	535.37	0.000
pair_modify tail no

bond_style class2
bond_coeff	1	0.0	155.820	0.0		   0.0000000
bond_coeff	2	0.0	166.275	0.0		 20.83333333
bond_coeff	3	0.0	 23.155	0.0		274.96833333
change_box all triclinic xy delta 0.0132976391992 yz delta 0.0132976391992 xz delta 0.0132976391992 remap
  triclinic box = (0 0 -0.00060158) to (4.01 4.01 2.0056) with tilt (0 0 0)
  triclinic box = (0 0 -0.000802201) to (4.01 4.01 2.0058) with tilt (0.0132976 0 0)
  triclinic box = (0 0 -0.00100286) to (4.01 4.01 2.006) with tilt (0.0132976 0 0.0132976)
  triclinic box = (0 0 -0.00120356) to (4.01 4.01 2.0062) with tilt (0.0132976 0.0132976 0.0132976)
compute dr all displace/atom
thermo 50
thermo_style custom step etotal epair evdwl ecoul elong ebond fnorm lx ly lz temp press pxx pyy pzz
dump dump_positions all atom 100 atomdump
dump dump_displace all custom 100 displdump  id type c_dr[1] c_dr[2] c_dr[3]
fix ef all efield -0.00288675134595 -0.00288675134595 -0.00288675134595
fix_modify ef energy yes
min_style fire
minimize 0.0 1e-06 20000 100000
  1 neighbor list requests
  update every 1 steps, delay 0 steps, check yes
Step TotEng E_pair E_vdwl E_coul E_long E_bond Fnorm Lx Ly Lz Temp Press Pxx Pyy Pzz
0   -112.48944   -112.48204    8.2656887   -120.74773            0            0    23.982295         4.01         4.01    2.0070059            0   -586009.67   -772752.53   -772710.88    -212565.6
Averages over the last 69 of 138 rows, steps 3450 to 6824:
TotEng E_pair E_vdwl E_coul E_long E_bond Fnorm Lx Ly Lz Temp Press Pxx Pyy Pzz
-114.373 -117.518 16.0685 -133.587 0 3.15855 3.05107e-05 4.01 4.01 1.834 2.24198e-08 -119145 -178572 -178723 -138.773
Loop time of 16.4549 on 8 procs for 6824 steps with 10 atoms

Minimization stats:
  Stopping criterion = force tolerance
  Energy initial, next-to-last, final =
  Force two-norm initial, final = 23.9823 9.95185e-07
  Force max component initial, final = 12.7041 3.48474e-07
  Final line search alpha, max atom move = 0 0
  Iterations, force evaluations = 6824 6824

min_style quickmin
minimize 0.0 1e-06 20000 100000
Step TotEng E_pair E_vdwl E_coul E_long E_bond Fnorm Lx Ly Lz Temp Press Pxx Pyy Pzz
6824   -114.37336   -117.51834    16.068463    -133.5868            0    3.1585541 9.9518508e-07         4.01         4.01     1.890145            0   -115606.06   -173265.01   -173417.64   -135.54758
Loop time of 0.0166546 on 8 procs for 1 steps with 10 atoms

Minimization stats:
  Stopping criterion = force tolerance
  Energy initial, next-to-last, final =
  Force two-norm initial, final = 9.95185e-07 9.95185e-07
  Force max component initial, final = 3.48474e-07 3.48474e-07
  Final line search alpha, max atom move = 0 0
  Iterations, force evaluations = 1 1

unfix ef
fix ef all efield -0.0057735026919 -0.0057735026919 -0.0057735026919
fix_modify ef energy yes
min_style fire
minimize 0.0 1e-06 20000 100000
Step TotEng E_pair E_vdwl E_coul E_long E_bond Fnorm Lx Ly Lz Temp Press Pxx Pyy Pzz
6825   -114.38694   -117.51834    16.068463    -133.5868            0    3.1585541  0.045369408         4.01         4.01     1.890145            0   -115606.06   -173265.01   -173417.64   -135.54758
Averages over the last 41 of 81 rows, steps 8800 to 10781:
TotEng E_pair E_vdwl E_coul E_long E_bond Fnorm Lx Ly Lz Temp Press Pxx Pyy Pzz
-114.387 -117.527 16.0842 -133.611 0 3.16683 1.26531e-05 4.01 4.01 1.89014 5.25597e-09 -115186 -172577 -172709 -271.12
Loop time of 12.5488 on 8 procs for 3956 steps with 10 atoms

Minimization stats:
  Stopping criterion = force tolerance
  Energy initial, next-to-last, final =
  Force two-norm initial, final = 0.0453694 9.89695e-07
  Force max component initial, final = 0.0145553 3.70332e-07
  Final line search alpha, max atom move = 0 0
  Iterations, force evaluations = 3956 3956

min_style quickmin
minimize 0.0 1e-06 20000 100000
Step TotEng E_pair E_vdwl E_coul E_long E_bond Fnorm Lx Ly Lz Temp Press Pxx Pyy Pzz
10781   -114.38697   -117.52652    16.084215   -133.61074            0    3.1668302 9.8969519e-07         4.01         4.01     1.890801            0   -115145.72   -172517.69   -172648.18   -271.30227
Loop time of 0.00774294 on 8 procs for 1 steps with 10 atoms

Minimization stats:
  Stopping criterion = force tolerance
  Energy initial, next-to-last, final =
  Force two-norm initial, final = 9.89695e-07 9.89695e-07
  Force max component initial, final = 3.70331e-07 3.70331e-07
  Final line search alpha, max atom move = 0 0
  Iterations, force evaluations = 1 1

unfix ef
fix ef all efield -0.00866025403784 -0.00866025403784 -0.00866025403784
fix_modify ef energy yes
min_style fire
minimize 0.0 1e-06 20000 100000
Step TotEng E_pair E_vdwl E_coul E_long E_bond Fnorm Lx Ly Lz Temp Press Pxx Pyy Pzz
10782   -114.40061   -117.52652    16.084215   -133.61074            0    3.1668302  0.045369422         4.01         4.01     1.890801            0   -115145.72   -172517.69   -172648.18   -271.30227
Averages over the last 41 of 82 rows, steps 12800 to 14787:
TotEng E_pair E_vdwl E_coul E_long E_bond Fnorm Lx Ly Lz Temp Press Pxx Pyy Pzz
-114.401 -117.535 16.0999 -133.635 0 3.17512 1.1563e-05 4.01 4.01 1.8908 1.08808e-09 -114729 -171836 -171944 -407.126
Loop time of 14.0826 on 8 procs for 4005 steps with 10 atoms

Minimization stats:
  Stopping criterion = force tolerance
  Energy initial, next-to-last, final =
  Force two-norm initial, final = 0.0453694 9.85315e-07
  Force max component initial, final = 0.0145554 3.72032e-07
  Final line search alpha, max atom move = 0 0
  Iterations, force evaluations = 4005 4005

min_style quickmin
minimize 0.0 1e-06 20000 100000
Step TotEng E_pair E_vdwl E_coul E_long E_bond Fnorm Lx Ly Lz Temp Press Pxx Pyy Pzz
14787   -114.40064   -117.53466    16.099917   -133.63458            0    3.1751216 9.8531509e-07         4.01         4.01     1.891453            0   -114689.53   -171777.28   -171884.05   -407.27315
Loop time of 0.0845891 on 8 procs for 1 steps with 10 atoms

Minimization stats:
  Stopping criterion = force tolerance
  Energy initial, next-to-last, final =
  Force two-norm initial, final = 9.85315e-07 9.85315e-07
  Force max component initial, final = 3.72031e-07 3.72031e-07
  Final line search alpha, max atom move = 0 0
  Iterations, force evaluations = 1 1

unfix ef
fix ef all efield -0.0115470053838 -0.0115470053838 -0.0115470053838
fix_modify ef energy yes
min_style fire
minimize 0.0 1e-06 20000 100000
Step TotEng E_pair E_vdwl E_coul E_long E_bond Fnorm Lx Ly Lz Temp Press Pxx Pyy Pzz
14788   -114.41434   -117.53466    16.099917   -133.63458            0    3.1751216  0.045369422         4.01         4.01     1.891453            0   -114689.53   -171777.28   -171884.05   -407.27315
Averages over the last 41 of 82 rows, steps 16800 to 18800:
TotEng E_pair E_vdwl E_coul E_long E_bond Fnorm Lx Ly Lz Temp Press Pxx Pyy Pzz
-114.414 -117.543 16.1156 -133.658 0 3.18343 1.03431e-05 4.01 4.01 1.89145 1.28914e-09 -114276 -171100 -171186 -543.41
Loop time of 17.3972 on 8 procs for 4012 steps with 10 atoms

Minimization stats:
  Stopping criterion = force tolerance
  Energy initial, next-to-last, final =
  Force two-norm initial, final = 0.0453694 9.85316e-07
  Force max component initial, final = 0.0145554 3.76424e-07
  Final line search alpha, max atom move = 0 0
  Iterations, force evaluations = 4012 4012

min_style quickmin
minimize 0.0 1e-06 20000 100000
Step TotEng E_pair E_vdwl E_coul E_long E_bond Fnorm Lx Ly Lz Temp Press Pxx Pyy Pzz
18800   -114.41437   -117.54275    16.115573   -133.65832            0    3.1834294 9.8531624e-07         4.01         4.01     1.892101            0    -114237.3   -171042.48   -171125.96    -543.4681
Loop time of 0.00708728 on 8 procs for 1 steps with 10 atoms

Minimization stats:
  Stopping criterion = force tolerance
  Energy initial, next-to-last, final =
  Force two-norm initial, final = 9.85316e-07 9.85316e-07
  Force max component initial, final = 3.76424e-07 3.76424e-07
  Final line search alpha, max atom move = 0 0
  Iterations, force evaluations = 1 1

unfix ef
fix ef all efield -0.0144337567297 -0.0144337567297 -0.0144337567297
fix_modify ef energy yes
min_style fire
minimize 0.0 1e-06 20000 100000
Step TotEng E_pair E_vdwl E_coul E_long E_bond Fnorm Lx Ly Lz Temp Press Pxx Pyy Pzz
18801   -114.42813   -117.54275    16.115573   -133.65832            0    3.1834294  0.045369417         4.01         4.01     1.892101            0    -114237.3   -171042.48   -171125.96    -543.4681
Averages over the last 42 of 83 rows, steps 20850 to 22876:
TotEng E_pair E_vdwl E_coul E_long E_bond Fnorm Lx Ly Lz Temp Press Pxx Pyy Pzz
-114.428 -117.551 16.1312 -133.682 0 3.19175 1.28471e-05 4.01 4.01 1.8921 1.04271e-09 -113827 -170370 -170432 -679.88
Loop time of 9.5627 on 8 procs for 4075 steps with 10 atoms

Minimization stats:
  Stopping criterion = force tolerance
  Energy initial, next-to-last, final =
  Force two-norm initial, final = 0.0453694 9.73324e-07
  Force max component initial, final = 0.0145553 3.7991e-07
  Final line search alpha, max atom move = 0 0
  Iterations, force evaluations = 4075 4075

min_style quickmin
minimize 0.0 1e-06 20000 100000
Step TotEng E_pair E_vdwl E_coul E_long E_bond Fnorm Lx Ly Lz Temp Press Pxx Pyy Pzz
22876   -114.42816    -117.5508    16.131188   -133.68199            0    3.1917546 9.7332392e-07         4.01         4.01    1.8927453            0   -113788.82   -170313.02   -170373.54   -679.89135
Loop time of 0.00874813 on 8 procs for 1 steps with 10 atoms

Minimization stats:
  Stopping criterion = force tolerance
  Energy initial, next-to-last, final =
  Force two-norm initial, final = 9.73324e-07 9.73324e-07
  Force max component initial, final = 3.7991e-07 3.7991e-07
  Final line search alpha, max atom move = 0 0
  Iterations, force evaluations = 1 1

unfix ef
fix ef all efield -0.0173205080757 -0.0173205080757 -0.0173205080757
fix_modify ef energy yes
min_style fire
minimize 0.0 1e-06 20000 100000
Step TotEng E_pair E_vdwl E_coul E_long E_bond Fnorm Lx Ly Lz Temp Press Pxx Pyy Pzz
22877   -114.44199    -117.5508    16.131188   -133.68199            0    3.1917546  0.045369419         4.01         4.01    1.8927453            0   -113788.82   -170313.02   -170373.54   -679.89135
Averages over the last 41 of 81 rows, steps 24850 to 26847:
TotEng E_pair E_vdwl E_coul E_long E_bond Fnorm Lx Ly Lz Temp Press Pxx Pyy Pzz
-114.442 -117.559 16.1468 -133.706 0 3.2001 1.50739e-05 4.01 4.01 1.89275 1.23673e-09 -113382 -169645 -169685 -816.506
Loop time of 9.85827 on 8 procs for 3970 steps with 10 atoms

Minimization stats:
  Stopping criterion = force tolerance
  Energy initial, next-to-last, final =
  Force two-norm initial, final = 0.0453694 9.98191e-07
  Force max component initial, final = 0.0145553 3.74777e-07
  Final line search alpha, max atom move = 0 0
  Iterations, force evaluations = 3970 3970

min_style quickmin
minimize 0.0 1e-06 20000 100000
Step TotEng E_pair E_vdwl E_coul E_long E_bond Fnorm Lx Ly Lz Temp Press Pxx Pyy Pzz
26847   -114.44202   -117.55881    16.146765   -133.70557            0    3.2000981 9.9819103e-07         4.01         4.01     1.893386            0   -113343.89   -169588.63    -169626.5   -816.55061
Loop time of 0.00548946 on 8 procs for 1 steps with 10 atoms

Minimization stats:
  Stopping criterion = force tolerance
  Energy initial, next-to-last, final =
  Force two-norm initial, final = 9.98191e-07 9.98191e-07
  Force max component initial, final = 3.74777e-07 3.74777e-07
  Final line search alpha, max atom move = 0 0
  Iterations, force evaluations = 1 1

unfix ef
fix ef all efield -0.0202072594216 -0.0202072594216 -0.0202072594216
fix_modify ef energy yes
min_style fire
minimize 0.0 1e-06 20000 100000
Step TotEng E_pair E_vdwl E_coul E_long E_bond Fnorm Lx Ly Lz Temp Press Pxx Pyy Pzz
26848    -114.4559   -117.55881    16.146765   -133.70557            0    3.2000981  0.045369424         4.01         4.01     1.893386            0   -113343.89   -169588.63    -169626.5   -816.55061
Averages over the last 42 of 83 rows, steps 28850 to 30888:
TotEng E_pair E_vdwl E_coul E_long E_bond Fnorm Lx Ly Lz Temp Press Pxx Pyy Pzz
-114.456 -117.567 16.1623 -133.729 0 3.20846 1.12839e-05 4.01 4.01 1.89339 1.43035e-09 -112940 -168925 -168942 -953.492
Loop time of 8.99652 on 8 procs for 4040 steps with 10 atoms

Minimization stats:
  Stopping criterion = force tolerance
  Energy initial, next-to-last, final =
  Force two-norm initial, final = 0.0453694 9.90371e-07
  Force max component initial, final = 0.0145554 3.91696e-07
  Final line search alpha, max atom move = 0 0
  Iterations, force evaluations = 4040 4040

min_style quickmin
minimize 0.0 1e-06 20000 100000
Step TotEng E_pair E_vdwl E_coul E_long E_bond Fnorm Lx Ly Lz Temp Press Pxx Pyy Pzz
30888   -114.45593   -117.56677    16.162308   -133.72908            0    3.2084608 9.9037122e-07         4.01         4.01    1.8940235            0   -112902.35   -168869.12   -168884.48   -953.45293
Loop time of 0.00851817 on 8 procs for 1 steps with 10 atoms

Minimization stats:
  Stopping criterion = force tolerance
  Energy initial, next-to-last, final =
  Force two-norm initial, final = 9.90371e-07 9.90371e-07
  Force max component initial, final = 3.91695e-07 3.91695e-07
  Final line search alpha, max atom move = 0 0
  Iterations, force evaluations = 1 1

unfix ef
fix ef all efield -0.0230940107676 -0.0230940107676 -0.0230940107676
fix_modify ef energy yes
min_style fire
minimize 0.0 1e-06 20000 100000
Step TotEng E_pair E_vdwl E_coul E_long E_bond Fnorm Lx Ly Lz Temp Press Pxx Pyy Pzz
30889   -114.46988   -117.56677    16.162308   -133.72908            0    3.2084608   0.04536942         4.01         4.01    1.8940235            0   -112902.35   -168869.12   -168884.48   -953.45293
Averages over the last 42 of 83 rows, steps 32900 to 34907:
TotEng E_pair E_vdwl E_coul E_long E_bond Fnorm Lx Ly Lz Temp Press Pxx Pyy Pzz
-114.47 -117.575 16.1778 -133.753 0 3.21684 9.82757e-06 4.01 4.01 1.89402 2.32627e-09 -112502 -168210 -168204 -1090.72
Loop time of 9.83603 on 8 procs for 4018 steps with 10 atoms

Minimization stats:
  Stopping criterion = force tolerance
  Energy initial, next-to-last, final =
  Force two-norm initial, final = 0.0453694 9.95395e-07
  Force max component initial, final = 0.0145553 4.00337e-07
  Final line search alpha, max atom move = 0 0
  Iterations, force evaluations = 4018 4018

min_style quickmin
minimize 0.0 1e-06 20000 100000
Step TotEng E_pair E_vdwl E_coul E_long E_bond Fnorm Lx Ly Lz Temp Press Pxx Pyy Pzz
34907   -114.46991    -117.5747     16.17782   -133.75252            0    3.2168436 9.9539494e-07         4.01         4.01    1.8946579            0   -112464.01   -168154.25   -168147.18   -1090.6037
Loop time of 0.00744903 on 8 procs for 1 steps with 10 atoms

Minimization stats:
  Stopping criterion = force tolerance
  Energy initial, next-to-last, final =
  Force two-norm initial, final = 9.95395e-07 9.95395e-07
  Force max component initial, final = 4.00337e-07 4.00337e-07
  Final line search alpha, max atom move = 0 0
  Iterations, force evaluations = 1 1

unfix ef
fix ef all efield -0.0259807621135 -0.0259807621135 -0.0259807621135
fix_modify ef energy yes
min_style fire
minimize 0.0 1e-06 20000 100000
Step TotEng E_pair E_vdwl E_coul E_long E_bond Fnorm Lx Ly Lz Temp Press Pxx Pyy Pzz
34908   -114.48391    -117.5747     16.17782   -133.75252            0    3.2168436  0.045369421         4.01         4.01    1.8946579            0   -112464.01   -168154.25   -168147.18   -1090.6037
Averages over the last 41 of 81 rows, steps 36900 to 38889:
TotEng E_pair E_vdwl E_coul E_long E_bond Fnorm Lx Ly Lz Temp Press Pxx Pyy Pzz
-114.484 -117.583 16.1933 -133.776 0 3.22525 1.14578e-05 4.01 4.01 1.89466 2.09099e-09 -112066 -167499 -167471 -1228.16
Loop time of 16.5222 on 8 procs for 3981 steps with 10 atoms

Minimization stats:
  Stopping criterion = force tolerance
  Energy initial, next-to-last, final =
  Force two-norm initial, final = 0.0453694 9.95713e-07
  Force max component initial, final = 0.0145554 3.88334e-07
  Final line search alpha, max atom move = 0 0
  Iterations, force evaluations = 3981 3981

min_style quickmin
minimize 0.0 1e-06 20000 100000
Step TotEng E_pair E_vdwl E_coul E_long E_bond Fnorm Lx Ly Lz Temp Press Pxx Pyy Pzz
38889   -114.48394   -117.58259    16.193304    -133.7759            0    3.2252475 9.9571312e-07         4.01         4.01    1.8952895            0   -112028.72   -167443.74   -167414.41   -1228.0079
Loop time of 0.0130609 on 8 procs for 1 steps with 10 atoms

Minimization stats:
  Stopping criterion = force tolerance
  Energy initial, next-to-last, final =
  Force two-norm initial, final = 9.95713e-07 9.95713e-07
  Force max component initial, final = 3.88334e-07 3.88334e-07
  Final line search alpha, max atom move = 0 0
  Iterations, force evaluations = 1 1

unfix ef
fix ef all efield -0.0288675134595 -0.0288675134595 -0.0288675134595
fix_modify ef energy yes
min_style fire
minimize 0.0 1e-06 20000 100000
Step TotEng E_pair E_vdwl E_coul E_long E_bond Fnorm Lx Ly Lz Temp Press Pxx Pyy Pzz
38890   -114.49801   -117.58259    16.193304    -133.7759            0    3.2252475  0.045369424         4.01         4.01    1.8952895            0   -112028.72   -167443.74   -167414.41   -1228.0079
Averages over the last 42 of 84 rows, steps 40950 to 42966:
TotEng E_pair E_vdwl E_coul E_long E_bond Fnorm Lx Ly Lz Temp Press Pxx Pyy Pzz
-114.498 -117.59 16.2088 -133.799 0 3.23367 9.13673e-06 4.01 4.01 1.89529 1.45136e-09 -111633 -166792 -166742 -1365.88
Loop time of 13.5899 on 8 procs for 4076 steps with 10 atoms

Minimization stats:
  Stopping criterion = force tolerance
  Energy initial, next-to-last, final =
  Force two-norm initial, final = 0.0453694 9.97272e-07
  Force max component initial, final = 0.0145554 3.84767e-07
  Final line search alpha, max atom move = 0 0
  Iterations, force evaluations = 4076 4076

min_style quickmin
minimize 0.0 1e-06 20000 100000
Step TotEng E_pair E_vdwl E_coul E_long E_bond Fnorm Lx Ly Lz Temp Press Pxx Pyy Pzz
42966   -114.49804   -117.59045    16.208765   -133.79922            0    3.2336731 9.9727193e-07         4.01         4.01    1.8959186            0   -111596.32   -166737.49    -166685.8   -1365.6731
Loop time of 0.00476105 on 8 procs for 1 steps with 10 atoms

Minimization stats:
  Stopping criterion = force tolerance
  Energy initial, next-to-last, final =
  Force two-norm initial, final = 9.97272e-07 9.97272e-07
  Force max component initial, final = 3.84767e-07 3.84767e-07
  Final line search alpha, max atom move = 0 0
  Iterations, force evaluations = 1 1

unfix ef
fix ef all efield -0.0317542648054 -0.0317542648054 -0.0317542648054
fix_modify ef energy yes
min_style fire
minimize 0.0 1e-06 20000 100000
Step TotEng E_pair E_vdwl E_coul E_long E_bond Fnorm Lx Ly Lz Temp Press Pxx Pyy Pzz
42967   -114.51217   -117.59045    16.208765   -133.79922            0    3.2336731  0.045369424         4.01         4.01    1.8959186            0   -111596.32   -166737.49    -166685.8   -1365.6731
Averages over the last 42 of 84 rows, steps 45050 to 47058:
TotEng E_pair E_vdwl E_coul E_long E_bond Fnorm Lx Ly Lz Temp Press Pxx Pyy Pzz
-114.512 -117.598 16.2242 -133.822 0 3.24212 9.62816e-06 4.01 4.01 1.89592 2.99018e-09 -111203 -166089 -166017 -1503.85
Loop time of 9.53302 on 8 procs for 4091 steps with 10 atoms

Minimization stats:
  Stopping criterion = force tolerance
  Energy initial, next-to-last, final =
  Force two-norm initial, final = 0.0453694 9.96171e-07
  Force max component initial, final = 0.0145554 3.8561e-07
  Final line search alpha, max atom move = 0 0
  Iterations, force evaluations = 4091 4091

min_style quickmin
minimize 0.0 1e-06 20000 100000
Step TotEng E_pair E_vdwl E_coul E_long E_bond Fnorm Lx Ly Lz Temp Press Pxx Pyy Pzz
47058    -114.5122   -117.59827    16.224204   -133.82248            0    3.2421215 9.9617143e-07         4.01         4.01    1.8965452            0   -111166.67   -166035.26   -165961.15   -1503.6044
Loop time of 0.00543017 on 8 procs for 1 steps with 10 atoms

Minimization stats:
  Stopping criterion = force tolerance
  Energy initial, next-to-last, final =
  Force two-norm initial, final = 9.96171e-07 9.96171e-07
  Force max component initial, final = 3.8561e-07 3.8561e-07
  Final line search alpha, max atom move = 0 0
  Iterations, force evaluations = 1 1

unfix ef
fix ef all efield -0.0346410161514 -0.0346410161514 -0.0346410161514
fix_modify ef energy yes
min_style fire
minimize 0.0 1e-06 20000 100000
Step TotEng E_pair E_vdwl E_coul E_long E_bond Fnorm Lx Ly Lz Temp Press Pxx Pyy Pzz
47059   -114.52638   -117.59827    16.224204   -133.82248            0    3.2421215  0.045369425         4.01         4.01    1.8965452            0   -111166.67   -166035.26   -165961.15   -1503.6044
Averages over the last 42 of 83 rows, steps 49100 to 51117:
TotEng E_pair E_vdwl E_coul E_long E_bond Fnorm Lx Ly Lz Temp Press Pxx Pyy Pzz
-114.526 -117.606 16.2396 -133.846 0 3.25059 1.07962e-05 4.01 4.01 1.89655 2.50323e-09 -110776 -165390 -165296 -1642.08
Loop time of 9.43853 on 8 procs for 4058 steps with 10 atoms

Minimization stats:
  Stopping criterion = force tolerance
  Energy initial, next-to-last, final =
  Force two-norm initial, final = 0.0453694 9.99811e-07
  Force max component initial, final = 0.0145554 3.92407e-07
  Final line search alpha, max atom move = 0 0
  Iterations, force evaluations = 4058 4058

min_style quickmin
minimize 0.0 1e-06 20000 100000
Step TotEng E_pair E_vdwl E_coul E_long E_bond Fnorm Lx Ly Lz Temp Press Pxx Pyy Pzz
51117   -114.52641   -117.60606    16.239625   -133.84568            0    3.2505932 9.998113e-07         4.01         4.01    1.8971696            0   -110739.63   -165336.87   -165240.21   -1641.8074
Loop time of 0.00490528 on 8 procs for 1 steps with 10 atoms

Minimization stats:
  Stopping criterion = force tolerance
  Energy initial, next-to-last, final =
  Force two-norm initial, final = 9.99811e-07 9.99811e-07
  Force max component initial, final = 3.92407e-07 3.92407e-07
  Final line search alpha, max atom move = 0 0
  Iterations, force evaluations = 1 1

unfix ef
fix ef all efield -0.0375277674973 -0.0375277674973 -0.0375277674973
fix_modify ef energy yes
min_style fire
minimize 0.0 1e-06 20000 100000
Step TotEng E_pair E_vdwl E_coul E_long E_bond Fnorm Lx Ly Lz Temp Press Pxx Pyy Pzz
51118   -114.54066   -117.60606    16.239625   -133.84568            0    3.2505932  0.045369419         4.01         4.01    1.8971696            0   -110739.63   -165336.87   -165240.21   -1641.8074
Averages over the last 29 of 57 rows, steps 52500 to 53900:
TotEng E_pair E_vdwl E_coul E_long E_bond Fnorm Lx Ly Lz Temp Press Pxx Pyy Pzz
-114.541 -117.614 16.255 -133.869 0 3.25908 8.63369e-05 4.01 4.01 1.89717 1.49869e-07 -110350 -164693 -164580 -1778.27
