LAMMPS (7 Sep 2016)
# Input file for lammps simulation using the Isotropic-anharmonic Shell Model
# proposed by Vielma and Schneider based on PBE Generalized Gradient
# Approximation(GGA) to Density Functional Theory(DFT):
# [Vielma Schneider 2013](http://dx.doi.org/10.1063/1.4827475)

# Vishal Boddu, June 2016

# ------------------------ INITIALIZATION ---------------------------------

units 		metal
dimension	3
boundary	p	p	p
atom_style	full

# ----------------------- ATOM DEFINITION ----------------------------

fix csinfo all property/atom i_CSID
read_data atom.data fix csinfo NULL CS-Info
  orthogonal box = (0 0 0) to (40.1 40.1 48.12)
  reading atoms ...
  12000 atoms
  scanning bonds ...
  reading bonds ...
  6000 bonds

#change_box all triclinic xy delta 0.0 xz delta 0.0 yz delta 0.0 remap

group cores type 1 3 5
6000 atoms in group cores
group shells type 2 4 6
6000 atoms in group shells

neighbor 0.5 bin
neigh_modify delay 10 check yes
comm_modify vel yes

# ------------------------ FORCE FIELDS ------------------------------

#kspace_style ewald 1.0e-6
#pair_style   born/coul/long/cs 8.0
pair_style   born/coul/wolf/cs 0.25 16.0 14.5
#pair_style   born/coul/wolf 0.25 16.0 14.5

#------------------------ A,  rho, sigma=0,     C,      D
pair_coeff	*	*	 0.0000	1.0000	0.000	0.0000	0.000
pair_coeff	2	6	7149.81	0.3019	0.000	0.0000	0.000
pair_coeff	4	6	7200.27	0.2303	0.000	0.0000	0.000
pair_coeff	6	6	3719.60	0.3408	0.000	597.17	0.000
pair_modify tail no

bond_style class2
bond_coeff	1	0.0	149.255	0.0		   0.0000000
bond_coeff	2	0.0	153.070	0.0		 20.83333333
bond_coeff	3	0.0	 18.465	0.0		208.33333333
change_box all triclinic xy delta 0.159571670391 yz delta 0.132976391992 xz delta 0.132976391992 remap
  triclinic box = (0 0 0) to (40.1 40.1 48.12) with tilt (0 0 0)
  triclinic box = (0 0 0) to (40.1 40.1 48.12) with tilt (0.159572 0 0)
  triclinic box = (0 0 0) to (40.1 40.1 48.12) with tilt (0.159572 0 0.132976)
  triclinic box = (0 0 0) to (40.1 40.1 48.12) with tilt (0.159572 0.132976 0.132976)
compute dr all displace/atom
reset_timestep 0
dump dump_positions all atom 1000 atomdump
dump dump_displace all custom 1000 displdump id type c_dr[1] c_dr[2] c_dr[3]
thermo 100
thermo_style custom step etotal pe ke fnorm ecoul elong ebond temp press pxx pyy pzz lx ly lz
compute CSequ all temp/cs cores shells
thermo_modify temp CSequ
fix EF all efield 0.000289 0.000289 0.000289
fix_modify EF energy yes
min_style quickmin
minimize 0.0 1e-04 30000 100000
  1 neighbor list requests
  update every 1 steps, delay 0 steps, check yes
Step TotEng PotEng KinEng Fnorm E_coul E_long E_bond Temp Press Pxx Pyy Pzz Lx Ly Lz
0   -143372.58   -143372.58            0   0.15734111   -153381.82            0            0            0   -56323.289   -56358.426   -56305.988   -56305.452         40.1         40.1        48.12
Averages over the last 9 of 18 rows, steps 900 to 1691:
TotEng PotEng KinEng Fnorm E_coul E_long E_bond Temp Press Pxx Pyy Pzz Lx Ly Lz
-143465 -143465 2.03532e-06 0.0194406 -156472 0 969.384 2.62475e-06 448.043 552.801 552.927 238.401 40.1 40.1 48.12
Loop time of 4782.29 on 8 procs for 1691 steps with 12000 atoms

Minimization stats:
  Stopping criterion = force tolerance
  Energy initial, next-to-last, final =
  Force two-norm initial, final = 0.157341 9.55974e-05
  Force max component initial, final = 0.00145714 2.69458e-06
  Final line search alpha, max atom move = 0 0
  Iterations, force evaluations = 1691 1691

unfix EF
min_style fire
minimize 0.0 1e-05 60000 100000
Step TotEng PotEng KinEng Fnorm E_coul E_long E_bond Temp Press Pxx Pyy Pzz Lx Ly Lz
1691   -143465.22   -143465.22            0   0.15734081   -156472.81            0    969.62993            0    464.57234    566.70188    563.33926    263.67587         40.1         40.1        48.12
Averages over the last 15 of 30 rows, steps 3100 to 4459:
TotEng PotEng KinEng Fnorm E_coul E_long E_bond Temp Press Pxx Pyy Pzz Lx Ly Lz
-143465 -143465 1.44456e-12 2.15762e-05 -156467 0 967.887 1.86291e-12 365.674 468.242 464.454 164.327 40.1 40.1 48.12
Loop time of 7403.36 on 8 procs for 2768 steps with 12000 atoms

Minimization stats:
  Stopping criterion = force tolerance
  Energy initial, next-to-last, final =
  Force two-norm initial, final = 0.157341 9.91293e-06
  Force max component initial, final = 0.0014585 3.06597e-07
  Final line search alpha, max atom move = 0 0
  Iterations, force evaluations = 2768 2768

reset_timestep 0
variable la equal lx
variable lb equal ly
variable lc equal lz
fix AVE_LAT all ave/time 1 30000 40000 v_la v_lb v_lc file ave_lat
fix AVE_ATOM all ave/atom 1 30000 40000 c_dr[1] c_dr[2] c_dr[3]
dump core_displ all custom 40000 displcoredump id type f_AVE_ATOM[1] f_AVE_ATOM[2] f_AVE_ATOM[3]
variable TEMP equal temp
fix AVE_T all ave/time 1 30000 40000 v_TEMP file ave_temp
velocity all create 5 146981634 dist gaussian mom yes rot no bias yes temp CSequ
  1 neighbor list requests
  update every 1 steps, delay 10 steps, check yes
timestep 0.0004
velocity all scale 5 temp CSequ
fix NPT all npt temp 5 5 0.100000 tri 1. 1. 0.100000
fix_modify NPT temp CSequ
run 10000
Step TotEng PotEng KinEng Fnorm E_coul E_long E_bond Temp Press Pxx Pyy Pzz Lx Ly Lz
0   -143461.34   -143465.22     3.877158 9.9115462e-06   -156467.47            0    967.88682            5    419.19465     522.1471    517.25617    218.18067         40.1         40.1        48.12
Averages over the last 51 of 101 rows, steps 5000 to 10000:
TotEng PotEng KinEng Fnorm E_coul E_long E_bond Temp Press Pxx Pyy Pzz Lx Ly Lz
-143458 -143461 3.88613 10.6269 -156483 0 980.814 5.01157 0.670703 2.73366 1.14046 0.641244 40.1062 40.106 48.1267
Loop time of 23647.5 on 8 procs for 10000 steps with 12000 atoms

unfix NPT
fix NPT all npt temp 5 5 0.100000 tri 1. 1. 0.100000
fix_modify NPT temp CSequ
run 30000
Step TotEng PotEng KinEng Fnorm E_coul E_long E_bond Temp Press Pxx Pyy Pzz Lx Ly Lz
10000   -143457.56   -143461.44    3.8772758    10.678556   -156481.88            0    980.09648    5.0001518   -11.685252   -6.1903234   -7.2472075    -19.11689    40.111385    40.109034    48.117013
Averages over the last 151 of 301 rows, steps 25000 to 40000:
TotEng PotEng KinEng Fnorm E_coul E_long E_bond Temp Press Pxx Pyy Pzz Lx Ly Lz
-143458 -143461 3.87659 10.6628 -156483 0 980.649 4.99927 0.0613394 0.760669 0.279253 1.67666 40.1061 40.1058 48.1269
Loop time of 70876 on 8 procs for 30000 steps with 12000 atoms

unfix NPT
variable STEP equal step
velocity all scale 30 temp CSequ
fix NPT all npt temp 30 30 0.100000 tri 1. 1. 0.100000
fix_modify NPT temp CSequ
run 10000
Step TotEng PotEng KinEng Fnorm E_coul E_long E_bond Temp Press Pxx Pyy Pzz Lx Ly Lz
40000   -143438.15   -143461.41    23.262948    10.736083   -156471.33            0    975.71691           30    190.45407    199.54587    200.61911     186.9393    40.105514    40.108444    48.120975
Averages over the last 51 of 101 rows, steps 45000 to 50000:
TotEng PotEng KinEng Fnorm E_coul E_long E_bond Temp Press Pxx Pyy Pzz Lx Ly Lz
-143419 -143442 23.2946 25.6954 -156467 0 984.309 30.0408 64.5635 69.4064 74.729 62.737 40.1103 40.1098 48.1316
Loop time of 23582.6 on 8 procs for 10000 steps with 12000 atoms

unfix NPT
fix NPT all npt temp 30 30 0.100000 tri 1. 1. 0.100000
fix_modify NPT temp CSequ
run 30000
Step TotEng PotEng KinEng Fnorm E_coul E_long E_bond Temp Press Pxx Pyy Pzz Lx Ly Lz
50000   -143418.08   -143441.39    23.315561    25.793847   -156415.03            0    966.01237    30.067849   -730.51148   -756.09193   -765.53961   -656.61681    40.103619    40.111989    48.132232
Averages over the last 151 of 301 rows, steps 65000 to 80000:
TotEng PotEng KinEng Fnorm E_coul E_long E_bond Temp Press Pxx Pyy Pzz Lx Ly Lz
-143418 -143442 23.2775 25.6933 -156465 0 984.265 30.0188 -71.5368 -67.4905 -67.8301 -66.1624 40.1103 40.1104 48.1336
Loop time of 71145.4 on 8 procs for 30000 steps with 12000 atoms

unfix NPT
variable STEP equal step
velocity all scale 55 temp CSequ
fix NPT all npt temp 55 55 0.100000 tri 1. 1. 0.100000
fix_modify NPT temp CSequ
run 10000
Step TotEng PotEng KinEng Fnorm E_coul E_long E_bond Temp Press Pxx Pyy Pzz Lx Ly Lz
80000    -143399.6   -143442.25    42.648736    25.496598   -156436.42            0    975.97293    54.999997    -507.9893     -484.588   -533.86411    -482.0099    40.107766    40.108278    48.143564
Averages over the last 51 of 101 rows, steps 85000 to 90000:
TotEng PotEng KinEng Fnorm E_coul E_long E_bond Temp Press Pxx Pyy Pzz Lx Ly Lz
-143379 -143422 42.6972 34.5506 -156450 0 987.975 55.0625 -20.4885 -11.8742 -13.0896 -13.7627 40.1138 40.1144 48.1399
Loop time of 23777.6 on 8 procs for 10000 steps with 12000 atoms

unfix NPT
fix NPT all npt temp 55 55 0.100000 tri 1. 1. 0.100000
fix_modify NPT temp CSequ
run 30000
Step TotEng PotEng KinEng Fnorm E_coul E_long E_bond Temp Press Pxx Pyy Pzz Lx Ly Lz
90000   -143379.24   -143422.15    42.908556    34.709771   -156453.97            0    993.76822    55.335062   -492.43649   -514.20145    -479.2268   -461.36369    40.126666    40.114493     48.13925
Averages over the last 151 of 301 rows, steps 105000 to 120000:
TotEng PotEng KinEng Fnorm E_coul E_long E_bond Temp Press Pxx Pyy Pzz Lx Ly Lz
-143380 -143422 42.6188 34.6052 -156450 0 987.93 54.9614 -11.4222 -3.73432 -3.86954 -3.83135 40.1147 40.1142 48.1386
Loop time of 71593.9 on 8 procs for 30000 steps with 12000 atoms

unfix NPT
variable STEP equal step
velocity all scale 80 temp CSequ
fix NPT all npt temp 80 80 0.100000 tri 1. 1. 0.100000
fix_modify NPT temp CSequ
run 10000
Step TotEng PotEng KinEng Fnorm E_coul E_long E_bond Temp Press Pxx Pyy Pzz Lx Ly Lz
120000   -143359.74   -143421.77    62.034655    34.974514   -156430.45            0    985.07042    80.000163   -484.76007   -455.01328   -478.90599   -486.65168    40.141296    40.121362    48.108247
Averages over the last 51 of 101 rows, steps 125000 to 130000:
TotEng PotEng KinEng Fnorm E_coul E_long E_bond Temp Press Pxx Pyy Pzz Lx Ly Lz
-143341 -143402 61.9022 41.5451 -156431 0 990.543 79.8293 -3.68881 8.98349 7.08367 5.15241 40.1212 40.1178 48.1415
Loop time of 24237 on 8 procs for 10000 steps with 12000 atoms

unfix NPT
fix NPT all npt temp 80 80 0.100000 tri 1. 1. 0.100000
fix_modify NPT temp CSequ
run 30000
Step TotEng PotEng KinEng Fnorm E_coul E_long E_bond Temp Press Pxx Pyy Pzz Lx Ly Lz
130000   -143342.89   -143403.44    60.553169    40.972787   -156402.02            0    977.68771    78.089633   -155.50681   -114.52971   -204.82064   -114.87535    40.137875    40.097418    48.131665
Averages over the last 151 of 301 rows, steps 145000 to 160000:
TotEng PotEng KinEng Fnorm E_coul E_long E_bond Temp Press Pxx Pyy Pzz Lx Ly Lz
-143341 -143403 61.8907 41.6254 -156433 0 991.449 79.8146 -8.15232 4.17005 -0.235037 4.4979 40.1181 40.1201 48.1439
Loop time of 73232 on 8 procs for 30000 steps with 12000 atoms

unfix NPT
variable STEP equal step
velocity all scale 105 temp CSequ
fix NPT all npt temp 105 105 0.100000 tri 1. 1. 0.100000
fix_modify NPT temp CSequ
run 10000
Step TotEng PotEng KinEng Fnorm E_coul E_long E_bond Temp Press Pxx Pyy Pzz Lx Ly Lz
160000   -143320.91   -143402.33    81.421506    41.746787   -156445.94            0    992.77727    105.00153    867.61935    644.20146    654.23056    1347.5597    40.112902    40.142934    48.112062
Averages over the last 51 of 101 rows, steps 165000 to 170000:
TotEng PotEng KinEng Fnorm E_coul E_long E_bond Temp Press Pxx Pyy Pzz Lx Ly Lz
-143302 -143383 81.2342 47.5427 -156414 0 993.496 104.76 3.04215 11.9832 66.9843 -27.5021 40.126 40.1194 48.1488
Loop time of 24608 on 8 procs for 10000 steps with 12000 atoms

unfix NPT
fix NPT all npt temp 105 105 0.100000 tri 1. 1. 0.100000
fix_modify NPT temp CSequ
run 30000
Step TotEng PotEng KinEng Fnorm E_coul E_long E_bond Temp Press Pxx Pyy Pzz Lx Ly Lz
170000   -143302.95   -143383.07    80.118091    47.543086   -156396.53            0    985.08178    103.32064    53.816049    91.385261   -44.766264    156.64238    40.103786    40.179258    48.092308
Averages over the last 151 of 301 rows, steps 185000 to 200000:
TotEng PotEng KinEng Fnorm E_coul E_long E_bond Temp Press Pxx Pyy Pzz Lx Ly Lz
-143301 -143383 81.3514 47.5642 -156413 0 993.649 104.911 -13.9242 5.62125 -11.7521 7.85742 40.122 40.1256 48.1465
Loop time of 74042.4 on 8 procs for 30000 steps with 12000 atoms

unfix NPT
variable STEP equal step
velocity all scale 130 temp CSequ
fix NPT all npt temp 130 130 0.100000 tri 1. 1. 0.100000
fix_modify NPT temp CSequ
run 10000
Step TotEng PotEng KinEng Fnorm E_coul E_long E_bond Temp Press Pxx Pyy Pzz Lx Ly Lz
200000   -143281.42   -143382.22    100.80373    47.443921   -156415.01            0    994.45975    129.99694    296.23301     574.1538    383.30679   -14.309786    40.120824    40.109676    48.166575
Averages over the last 51 of 101 rows, steps 205000 to 210000:
TotEng PotEng KinEng Fnorm E_coul E_long E_bond Temp Press Pxx Pyy Pzz Lx Ly Lz
-143261 -143362 101.226 53.0184 -156394 0 996.301 130.542 -21.8185 -9.19018 -1.13519 -0.979838 40.1386 40.1226 48.1461
Loop time of 24578.5 on 8 procs for 10000 steps with 12000 atoms

unfix NPT
fix NPT all npt temp 130 130 0.100000 tri 1. 1. 0.100000
fix_modify NPT temp CSequ
run 30000
Step TotEng PotEng KinEng Fnorm E_coul E_long E_bond Temp Press Pxx Pyy Pzz Lx Ly Lz
210000   -143263.01   -143363.44    100.42062     52.70061   -156370.76            0    986.11951    129.50287   -95.136338   -365.01172   -145.95738    279.22346    40.161735    40.105792    48.123422
Averages over the last 139 of 278 rows, steps 223900 to 237700:
TotEng PotEng KinEng Fnorm E_coul E_long E_bond Temp Press Pxx Pyy Pzz Lx Ly Lz
-143261 -143362 100.926 53.0894 -156392 0 995.451 130.155 -17.5502 3.19847 1.66218 -2.46703 40.1248 40.1306 48.1516
